Version 4
SHEET 1 1456 680
WIRE 336 -64 208 -64
WIRE 464 -64 336 -64
WIRE 1248 -64 464 -64
WIRE 208 -48 208 -64
WIRE 336 -48 336 -64
WIRE 464 -48 464 -64
WIRE 48 0 -496 0
WIRE 32 16 -464 16
WIRE 832 16 576 16
WIRE 16 32 -432 32
WIRE 800 32 592 32
WIRE -496 80 -496 0
WIRE -464 80 -464 16
WIRE -432 80 -432 32
WIRE 800 96 800 32
WIRE 832 96 832 16
WIRE 48 112 48 0
WIRE 384 112 48 112
WIRE 32 128 32 16
WIRE 256 128 32 128
WIRE 208 144 208 96
WIRE 336 144 336 96
WIRE 464 144 464 96
WIRE 16 224 16 32
WIRE 160 224 16 224
WIRE 256 224 256 128
WIRE 288 224 256 224
WIRE 384 224 384 112
WIRE 416 224 384 224
WIRE -304 368 -304 208
WIRE 32 368 32 288
WIRE 32 368 -304 368
WIRE 576 368 576 16
WIRE 576 368 32 368
WIRE -272 384 -272 208
WIRE 64 384 64 288
WIRE 64 384 -272 384
WIRE 592 384 592 32
WIRE 592 384 64 384
WIRE -176 416 -176 208
WIRE 0 416 0 288
WIRE 0 416 -176 416
WIRE 1216 416 1216 224
WIRE 1216 416 0 416
WIRE -112 448 -112 208
WIRE -32 448 -32 288
WIRE -32 448 -112 448
WIRE 208 448 208 240
WIRE 208 448 -32 448
WIRE 336 448 336 240
WIRE 336 448 208 448
WIRE 464 448 464 240
WIRE 464 448 336 448
WIRE 1184 448 1184 224
WIRE 1184 448 464 448
WIRE 1248 448 1184 448
FLAG 1248 -64 +12V
FLAG 1248 448 0
SYMBOL LED 192 -48 R0
WINDOW 3 24 64 Invisible 2
SYMATTR InstName RedLED
SYMBOL LED 320 -48 R0
WINDOW 3 24 64 Invisible 2
SYMATTR InstName GreenLED
SYMBOL LED 448 -48 R0
WINDOW 3 24 64 Invisible 2
SYMATTR InstName BlueLED
SYMBOL nmos 160 144 R0
WINDOW 3 56 72 Invisible 2
SYMATTR InstName M1
SYMBOL nmos 288 144 R0
WINDOW 3 56 72 Invisible 2
SYMATTR InstName M2
SYMBOL nmos 416 144 R0
WINDOW 3 56 72 Invisible 2
SYMATTR InstName M3
SYMBOL WiFi-NodeM 768 96 R0
SYMATTR InstName X1
SYMBOL ArduinoNano -256 160 R180
SYMATTR InstName X2
SYMBOL res 192 0 R0
WINDOW 3 36 76 Invisible 2
SYMATTR InstName R1
SYMBOL res 320 0 R0
WINDOW 3 36 76 Invisible 2
SYMATTR InstName R2
SYMBOL res 448 0 R0
WINDOW 3 36 76 Invisible 2
SYMATTR InstName R3
SYMBOL DS3231Module 144 208 R0
SYMATTR InstName X3
TEXT 1224 160 Left 2 ;USB in for 5V power
